Modified IEEE34/dss/comp.dss
! In-Line Transformer
New Transformer.XFM1 Phases=3 Windings=2 Xhl=4.08
~ wdg=1 bus=832       conn=wye   kv=24.9  kva=500   %r=0.95
~ wdg=2 bus=888       conn=wye   kv=4.16  kva=500   %r=0.95

! Switchable Capacitors (SCBs)
New Capacitor.SCB864 Bus1=864 Phases=3 kVAR=480 kV=24.9 numsteps=4
New Capacitor.SCB840 Bus1=840 Phases=3 kVAR=480 kV=24.9 numsteps=4

! Regulators
! Regulator 1
new transformer.reg1a phases=1 windings=2 bank=reg1 buses=(814.1 814r.1) conns='wye wye' kvs="14.376 14.376" kvas="2500 2500" XHL=1 maxtap=1.1 mintap=0.9 numtaps=32
new regcontrol.creg1a transformer=reg1a winding=2 vreg=122 band=2 ptratio=120 ctprim=100 R=2.7 X=1.6 
new transformer.reg1b phases=1 windings=2 bank=reg1 buses=(814.2 814r.2) conns='wye wye' kvs="14.376 14.376" kvas="2500 2500" XHL=1 maxtap=1.1 mintap=0.9 numtaps=32
new regcontrol.creg1b transformer=reg1b winding=2 vreg=122 band=2 ptratio=120 ctprim=100 R=2.7 X=1.6 
new transformer.reg1c phases=1 windings=2 bank=reg1 buses=(814.3 814r.3) conns='wye wye' kvs="14.376 14.376" kvas="2500 2500" XHL=1 maxtap=1.1 mintap=0.9 numtaps=32
new regcontrol.creg1c transformer=reg1c winding=2 vreg=122 band=2 ptratio=120 ctprim=100 R=2.7 X=1.6 

! Regulator 2
new transformer.reg2a phases=1 windings=2 bank=reg2 buses=(852.1 852r.1) conns='wye wye' kvs="14.376 14.376" kvas="2500 2500" XHL=1 maxtap=1.1 mintap=0.9 numtaps=32
new regcontrol.creg2a transformer=reg2a winding=2 vreg=124 band=2 ptratio=120 ctprim=100 R=2.5 X=1.5 
new transformer.reg2b phases=1 windings=2 bank=reg2 buses=(852.2 852r.2) conns='wye wye' kvs="14.376 14.376" kvas="2500 2500" XHL=1 maxtap=1.1 mintap=0.9 numtaps=32
new regcontrol.creg2b transformer=reg2b winding=2 vreg=124 band=2 ptratio=120 ctprim=100 R=2.5 X=1.5 
new transformer.reg2c phases=1 windings=2 bank=reg2 buses=(852.3 852r.3) conns='wye wye' kvs="14.376 14.376" kvas="2500 2500" XHL=1 maxtap=1.1 mintap=0.9 numtaps=32
new regcontrol.creg2c transformer=reg2c winding=2 vreg=124 band=2 ptratio=120 ctprim=100 R=2.5 X=1.5 
